Circuit: * D:\development\electronic\projects\multisensor\multisensor\pcb\spice\regulator_esp07_DS.asc

Questionable use of curly braces in "b§e_abm1 n508352 0 v={min(v(n501262),(v(vzz_int)+({ilim}*{rout})))}"
    Error: undefined symbol in: "min([v](n501262),(v(vzz_int)+((ilim)*(rout))))"
Questionable use of curly braces in "b§e_abm10 n508434 0 v={if(v(vout1)<0.36&v(load)>0.99*{ilim},1,0)}"
    Error: undefined symbol in: "if([v](vout1)<0.36&v(load)>0.99*(ilim),1,0)"
Questionable use of curly braces in "b§g_u1_abmi1 u1_n08522 u1_n08530 i={if(v(en_ok)>0.5&v(u1_vin_ok)>0.5,0.06,0)} "
    Error: undefined symbol in: "if([v](en_ok)>0.5&v(u1_vin_ok)>0.5,0.06,0)"
Questionable use of curly braces in "b§e_abm2 n508184 0 v={max(v(vzz_int)+(v(i_foldback)*{rout}),(v(vzz_int)+({isc}*{rout})))}"
    Error: undefined symbol in: "max([v](vzz_int)+(v(i_foldback)*(rout)),(v(vzz_int)+((isc)*(rout))))"
Questionable use of curly braces in "b§e_abmgate1 yint1 0 v={if(v(a)>{{vthresh}},{{vdd}},{{vss}})}"
    Error: undefined symbol in: "if([v](a)>((vthresh)),((vdd)),((vss)))"
Questionable use of curly braces in "b§e_abmgate2 yint3 0 v={if(v(yint2)>{{vthresh}},{{vss}},{{vdd}})}"
    Error: undefined symbol in: "if([v](yint2)>((vthresh)),((vss)),((vdd)))"
Questionable use of curly braces in "b§e_abmgate1 yint1 0 v={if(v(a)>{{vthresh}},{{vdd}},{{vss}})}"
    Error: undefined symbol in: "if([v](a)>((vthresh)),((vdd)),((vss)))"
Questionable use of curly braces in "b§e_abmgate2 yint3 0 v={if(v(yint2)>{{vthresh}},{{vdd}},{{vss}})}"
    Error: undefined symbol in: "if([v](yint2)>((vthresh)),((vdd)),((vss)))"
Questionable use of curly braces in "b§e_abmgate1 yint1 0 v={if(v(a)>{{vthresh}},{{vdd}},{{vss}})}"
    Error: undefined symbol in: "if([v](a)>((vthresh)),((vdd)),((vss)))"
Questionable use of curly braces in "b§e_abmgate2 yint3 0 v={if(v(yint2)>{{vthresh}},{{vdd}},{{vss}})}"
    Error: undefined symbol in: "if([v](yint2)>((vthresh)),((vdd)),((vss)))"
Questionable use of curly braces in "b§e_abmgate yint 0 v={if(v(a)>{{vthresh}},{{vdd}},{{vss}})}"
    Error: undefined symbol in: "if([v](a)>((vthresh)),((vdd)),((vss)))"
Unknown node in .ic card: "vc2" -- ignoring
Unknown node in .ic card: "vc4" -- ignoring
WARNING: Less than two connections to node nc_01.  This node is used by r:u1:_nc.
Direct Newton iteration for .op point succeeded.

Date: Sun Dec  3 18:29:27 2023
Total elapsed time: 0.102 seconds.

tnom = 27
temp = 27
method = modified trap
totiter = 2585
traniter = 2575
tranpoints = 1191
accept = 1154
rejected = 37
matrix size = 123
fillins = 63
solver = Normal
Avg thread counts: 3.3/6.0/6.0/3.3
Matrix Compiler1: 5.27 KB object code size  1.2/0.9/[0.7]
Matrix Compiler2: 8.36 KB object code size  0.8/1.0/[0.6]

